testcases/case2869pegase_OPF2.m
function mpc = case2869pegase_OPF2
%CASE2869PEGASE_OPF2

%% MATPOWER Case Format : Version 2
mpc.version = '2';

%%-----  Power Flow Data  -----%%
%% system MVA base
mpc.baseMVA = 100;

%% bus data
%	bus_i	type	Pd	Qd	Gs	Bs	area	Vm	Va	baseKV	zone	Vmax	Vmin
mpc.bus = [
	3	1	151	48.8	0	4.69	0	1	0	220	5	1.1	0.8;
	4	1	171.41	23.4	0	2.1	0	1	0	220	5	1.1	0.8;
	10	1	134	24.7	0	12.44	0	1	0	220	5	1.1	0.8;
	15	1	59.67	26.7	0	12.84	0	1	0	220	4	1.1	0.8;
	21	1	161.2	39.3	0	30.71	0	1	0	220	5	1.1	0.8;
	22	1	0	0	0	0.85	0	1	0	220	5	1.1	0.8;
	26	1	167.3	54.8	0	110.54	0	1	0	380	5	1.1	0.8;
	29	1	152.9	49.4	0	27.65	0	1	0	380	5	1.1	0.8;
	32	2	0	0	0	0	0	1	0	220	4	1.1	0.8;
	33	2	0	0	0	0	0	1	0	220	4	1.1	0.8;
	38	1	42.75	12.8	0	13.3	0	1	0	220	8	1.1	0.8;
	39	2	0	0	0	0	0	1	0	150	10	1.1	0.8;
	42	1	20.82	7.9	0	26.89	0	1	0	380	4	1.1	0.8;
	44	1	0	0	0	7.27	0	1	0	220	5	1.1	0.8;
	51	2	0	0	0	0	0	1	0	220	4	1.1	0.8;
	52	1	127.6	31.8	0	20.51	0	1	0	150	8	1.1	0.8;
	53	1	48.65	16.1	0	7.14	0	1	0	220	5	1.1	0.8;
	58	1	0	0	0	2.31	0	1	0	380	5	1.1	0.8;
	59	1	119.2	20.7	0	3.31	0	1	0	220	5	1.1	0.8;
	69	1	62.87	20.5	0	1.15	0	1	0	150	8	1.1	0.8;
	71	1	126.3	42.4	0	55.24	0	1	0	150	8	1.1	0.8;
	72	1	6.91	-4.6	0	5.75	0	1	0	220	4	1.1	0.8;
	75	1	38.74	6.1	0	1.17	0	1	0	220	4	1.1	0.8;
	76	1	22.13	10.7	0	14.21	0	1	0	220	8	1.1	0.8;
	77	1	0	0	0	0.73	0	1	0	220	4	1.1	0.8;
	89	1	0	0	0	4.53	0	1	0	380	2	1.1	0.8;
	90	1	363.25	115.39	0	3.95	0	1	0	220	5	1.1	0.8;
	91	1	0	0	0	0.02	0	1	0	150	8	1.1	0.8;
	96	1	-8.4	28.66	0	3.49	0	1	0	220	5	1.1	0.8;
	113	1	0	0	0	6.53	0	1	0	380	5	1.1	0.8;
	115	1	0	0	0	4.21	0	1	0	220	5	1.1	0.8;
	118	1	704.53	-35.33	0	13.1	0	1	0	380	5	1.1	0.8;
	124	2	0	0	0	0	0	1	0	220	5	1.1	0.8;
	128	1	23.73	12.7	0	0.52	0	1	0	220	5	1.1	0.8;
	130	1	0	0	0	47.75	0	1	0	380	10	1.1	0.8;
	132	1	0	0	0	21.39	0	1	0	380	1	1.1	0.8;
	133	1	38.14	12.5	0	6.28	0	1	0	150	8	1.1	0.8;
	138	1	-75.38	7.8	0	29.9	0	1	0	380	10	1.1	0.8;
	139	1	-764.34	66.91	0	33.47	0	1	0	380	8	1.1	0.8;
	140	1	0	0	0	4.14	0	1	0	220	8	1.1	0.8;
	143	1	0	0	0	0	0	1	0	150	8	1.1	0.8;
	145	1	38.34	5.6	0	7.64	0	1	0	220	5	1.1	0.8;
	148	1	32.34	12	0	6.1	0	1	0	220	5	1.1	0.8;
	150	2	0	0	0	0	0	1	0	220	5	1.1	0.8;
	163	1	147.76	32.73	0	8.34	0	1	0	220	5	1.1	0.8;
	164	1	0	0	0	5.17	0	1	0	150	8	1.1	0.8;
	171	1	100.8	13.2	0	5.24	0	1	0	220	5	1.1	0.8;
	172	1	111.7	10.96	0	4.22	0	1	0	220	4	1.1	0.8;
	174	1	370.5	-17	0	9.91	0	1	0	220	5	1.1	0.8;
	177	1	94.9	36.2	0	16.46	0	1	0	220	10	1.1	0.8;
	179	2	0	0	0	0	0	1	0	380	4	1.1	0.8;
	184	1	0	0	0	2.42	0	1	0	220	5	1.1	0.8;
	188	1	36.84	13.9	0	3.3	0	1	0	220	5	1.1	0.8;
	194	2	0	0	0	0	0	1	0	150	8	1.1	0.8;
	195	1	73.14	21.55	0	8.52	0	1	0	220	5	1.1	0.8;
	196	1	0	0	0	12.48	0	1	0	220	5	1.1	0.8;
	198	1	39.74	11.8	0	1.44	0	1	0	220	5	1.1	0.8;
	199	1	86.8	28.4	0	1.34	0	1	0	150	8	1.1	0.8;
	201	2	0	0	0	0	0	1	0	220	4	1.1	0.8;
	205	1	46.15	18.2	0	1.29	0	1	0	150	8	1.1	0.8;
	207	1	321.98	84.4	0	1.34	0	1	0	220	5	1.1	0.8;
	211	1	75.28	19.2	0	1.9	0	1	0	110	8	1.1	0.8;
	216	1	155.6	54.7	0	2.21	0	1	0	220	5	1.1	0.8;
	217	1	105.2	0.1	0	7.36	0	1	0	220	5	1.1	0.8;
	218	1	69.83	15.12	0	2.23	0	1	0	220	5	1.1	0.8;
	221	2	0	0	0	0	0	1	0	380	5	1.1	0.8;
	225	1	0	0	0	1.15	0	1	0	220	5	1.1	0.8;
	228	1	-23.43	57.4	0	0	0	1	0	150	2	1.1	0.8;
	230	1	152.07	22.52	0	7.87	0	1	0	220	4	1.1	0.8;
	231	1	-0.13	-1	0	0	0	1	0	110	8	1.1	0.8;
	236	1	45.85	7	0	1.05	0	1	0	220	4	1.1	0.8;
	243	1	0	-0.01	0	13.49	0	1	0	150	8	1.1	0.8;
	244	1	0	0	0	0.68	0	1	0	150	8	1.1	0.8;
	249	1	0	0	0	26.3	0	1	0	220	4	1.1	0.8;
	257	1	113.9	24.5	0	6.72	0	1	0	220	4	1.1	0.8;
	261	1	0	0	0	1.29	0	1	0	380	10	1.1	0.8;
	264	1	38.74	9	0	0.57	0	1	0	220	4	1.1	0.8;
	266	1	0	0	0	140.96	0	1	0	380	4	1.1	0.8;
	267	1	103.8	2.7	0	3.33	0	1	0	220	4	1.1	0.8;
	268	1	-0.13	-1	0	0	0	1	0	220	8	1.1	0.8;
	271	1	96.7	26.8	0	0	0	1	0	150	2	1.1	0.8;
	275	1	102.1	25.3	0	1.11	0	1	0	150	8	1.1	0.8;
	280	1	119.6	29.6	0	5.34	0	1	0	220	5	1.1	0.8;
	281	1	0	0	0	18.07	0	1	0	380	8	1.1	0.8;
	283	1	27.33	11.9	0	1.17	0	1	0	220	5	1.1	0.8;
	284	1	191.2	-3.4	0	19.21	0	1	0	220	4	1.1	0.8;
	292	1	13.82	1.4	0	0.7	0	1	0	220	5	1.1	0.8;
	297	1	23.73	9.4	0	1.45	0	1	0	150	8	1.1	0.8;
	299	2	0	0	0	0	0	1	0	380	4	1.1	0.8;
	304	1	2.2	0.5	0	0.21	0	1	0	150	10	1.1	0.8;
	305	1	103	12	0	0.63	0	1	0	220	5	1.1	0.8;
	306	1	0	0	0	4.76	0	1	0	220	5	1.1	0.8;
	311	1	42.05	17.2	0	1.31	0	1	0	150	8	1.1	0.8;
	312	1	-0.16	-2.91	0	0.43	0	1	0	110	8	1.1	0.8;
	314	1	163.1	46.3	0	10.6	0	1	0	220	5	1.1	0.8;
	315	1	0	0	0	2.13	0	1	0	220	10	1.1	0.8;
	317	1	0	0	0	-1.82	0	1	0	380	2	1.1	0.8;
	322	1	303.8	85.4	0	3.63	0	1	0	220	10	1.1	0.8;
	326	1	0	0	0	0	0	1	0	220	8	1.1	0.8;
	333	1	524.5	43	0	6.85	0	1	0	220	5	1.1	0.8;
	338	2	0	0	0	0	0	1	0	220	5	1.1	0.8;
	344	1	372.8	147.5	0	27.73	0	1	0	150	8	1.1	0.8;
	346	1	197.5	48.3	0	0.71	0	1	0	220	5	1.1	0.8;
	349	1	0	0	0	15.15	0	1	0	150	8	1.1	0.8;
	350	1	110.4	26.2	0	5.62	0	1	0	220	5	1.1	0.8;
	351	1	-0.15	-1.93	0	0	0	1	0	220	8	1.1	0.8;
	352	2	0	0	0	0	0	1	0	380	5	1.1	0.8;
	360	1	35.54	11.5	0	3.65	0	1	0	110	8	1.1	0.8;
	367	1	65.17	-51.5	0	4.85	0	1	0	220	5	1.1	0.8;
	369	1	0	0	0	3.78	0	1	0	220	8	1.1	0.8;
	370	1	56.76	23.2	0	0.49	0	1	0	150	8	1.1	0.8;
	377	1	-0.18	-1	0	0	0	1	0	150	8	1.1	0.8;
	380	1	-95.71	-2.8	0	7.25	0	1	0	220	10	1.1	0.8;
	385	1	0	0	0	105.84	0	1	0	380	4	1.1	0.8;
	387	1	-0.19	-4.38	0	0	0	1	0	150	8	1.1	0.8;
	389	2	0	0	0	0	0	1	0	150	10	1.1	0.8;
	392	1	134.1	34.2	0	0.75	0	1	0	150	8	1.1	0.8;
	395	1	0	0	0	7.85	0	1	0	380	8	1.1	0.8;
	401	1	56.5	36.29	0	3.08	0	1	0	220	5	1.1	0.8;
	408	1	129.1	7.4	0	0.04	0	1	0	220	5	1.1	0.8;
	410	1	170.89	50.38	0	6.44	0	1	0	220	5	1.1	0.8;
	413	2	0	0	0	0	0	1	0	220	5	1.1	0.8;
	415	1	4.71	0.7	0	11.39	0	1	0	220	4	1.1	0.8;
	416	1	70.68	13.5	0	6.96	0	1	0	220	5	1.1	0.8;
	420	1	0	0	0	0	0	1	0	380	8	1.1	0.8;
	425	1	0	0	0	2.72	0	1	0	380	1	1.1	0.8;
	426	1	123.1	6.5	0	3.25	0	1	0	220	5	1.1	0.8;
	427	1	0	0	0	1.24	0	1	0	380	1	1.1	0.8;
	429	1	26.93	-22.4	0	4.95	0	1	0	220	4	1.1	0.8;
	432	1	0	0	0	68.52	0	1	0	380	5	1.1	0.8;
	440	2	0	0	0	0	0	1	0	220	4	1.1	0.8;
	441	1	0	0	0	27.89	0	1	0	380	10	1.1	0.8;
	442	2	0	0	0	0	0	1	0	220	4	1.1	0.8;
	444	1	0	0	0	2.45	0	1	0	220	5	1.1	0.8;
	445	1	36.74	10.3	0	8.1	0	1	0	220	4	1.1	0.8;
	449	1	0	0	0	29.42	0	1	0	380	5	1.1	0.8;
	453	2	0	0	0	0	0	1	0	380	5	1.1	0.8;
	455	1	274.32	5.66	0	13.24	0	1	0	220	5	1.1	0.8;
	472	1	336.2	131.6	0	64.01	0	1	0	150	8	1.1	0.8;
	473	1	-22.95	-3.72	0	14.34	0	1	0	220	4	1.1	0.8;
	477	1	0	0	0	70.37	0	1	0	380	4	1.1	0.8;
	481	1	0	0	0	17.44	0	1	0	220	4	1.1	0.8;
	483	1	57.26	15.6	0	3.43	0	1	0	220	4	1.1	0.8;
	486	1	7.01	2	0	0.44	0	1	0	150	8	1.1	0.8;
	489	2	0	0	0	0	0	1	0	220	4	1.1	0.8;
	490	1	20.52	4	0	2.77	0	1	0	220	5	1.1	0.8;
	496	1	0	0	0	10.04	0	1	0	150	8	1.1	0.8;
	500	1	144.4	35.5	0	7.66	0	1	0	220	5	1.1	0.8;
	502	1	0	0	0	1.96	0	1	0	220	5	1.1	0.8;
	506	1	0	0	0	0.4	0	1	0	380	5	1.1	0.8;
	509	1	77.29	7	0	17.6	0	1	0	220	4	1.1	0.8;
	513	1	57.46	17.1	0	1.61	0	1	0	220	5	1.1	0.8;
	516	2	0	0	0	0	0	1	0	220	5	1.1	0.8;
	519	1	207.2	9.4	0	8.77	0	1	0	220	4	1.1	0.8;
	520	1	118.5	20.4	0	2.57	0	1	0	220	5	1.1	0.8;
	523	1	189.9	74.7	0	26.2	0	1	0	150	8	1.1	0.8;
	527	1	277.7	45.4	0	0.7	0	1	0	220	4	1.1	0.8;
	536	1	87.8	-1.4	0	36.05	0	1	0	380	10	1.1	0.8;
	539	1	57.96	18.9	0	14.91	0	1	0	150	8	1.1	0.8;
	544	1	79.69	39.6	0	18.83	0	1	0	380	10	1.1	0.8;
	548	1	30.93	8.9	0	0.45	0	1	0	110	8	1.1	0.8;
	549	1	0	0	0	5.15	0	1	0	220	5	1.1	0.8;
	550	1	0	0	0	10	0	1	0	220	4	1.1	0.8;
	552	1	180.8	90.8	0	2.42	0	1	0	150	10	1.1	0.8;
	554	1	0	0	0	1.97	0	1	0	220	5	1.1	0.8;
	556	1	16.52	9	0	1.17	0	1	0	220	5	1.1	0.8;
	558	1	-0.18	-3.57	0	0	0	1	0	150	8	1.1	0.8;
	559	1	42.25	16.6	0	0	0	1	0	150	8	1.1	0.8;
	561	1	0	0	0	0.32	0	1	0	220	5	1.1	0.8;
	564	2	0	0	0	0	0	1	0	220	5	1.1	0.8;
	575	1	0	0	0	0.67	0	1	0	220	5	1.1	0.8;
	577	1	-0.13	-1	0	0	0	1	0	220	8	1.1	0.8;
	579	1	17.32	6.6	0	16.52	0	1	0	380	4	1.1	0.8;
	583	2	0	0	0	0	0	1	0	220	5	1.1	0.8;
	585	1	21.12	8.3	0	4.26	0	1	0	150	8	1.1	0.8;
	593	1	0	0	0	29.2	0	1	0	380	8	1.1	0.8;
	594	1	67.57	17	0	5.75	0	1	0	220	5	1.1	0.8;
	595	1	47.55	5.3	0	7.59	0	1	0	220	4	1.1	0.8;
	597	1	33.34	15.7	0	64.15	0	1	0	380	4	1.1	0.8;
	601	1	140.6	42.6	0	5.71	0	1	0	220	5	1.1	0.8;
	602	1	110.8	-8.8	0	3.15	0	1	0	220	4	1.1	0.8;
	604	1	33.24	4.4	0	24.54	0	1	0	380	5	1.1	0.8;
	608	1	150.9	10.4	0	4.77	0	1	0	220	5	1.1	0.8;
	609	1	0	0	0	5.67	0	1	0	220	5	1.1	0.8;
	610	1	0	0	0	0.91	0	1	0	150	10	1.1	0.8;
	615	2	0	0	0	0	0	1	0	220	5	1.1	0.8;
	616	2	0	0	0	0	0	1	0	220	5	1.1	0.8;
	618	2	0	0	0	0	0	1	0	380	4	1.1	0.8;
	619	1	72.88	14.4	0	2.96	0	1	0	220	5	1.1	0.8;
	621	1	21.42	8.1	0	7.38	0	1	0	220	4	1.1	0.8;
	628	2	0	0	0	0	0	1	0	220	10	1.1	0.8;
	639	2	0	0	0	0	0	1	0	220	5	1.1	0.8;
	641	1	45.32	18.5	0	0.74	0	1	0	220	5	1.1	0.8;
	642	2	0	0	0	0	0	1	0	380	4	1.1	0.8;
	643	1	15.52	6.3	0	0.6	0	1	0	150	8	1.1	0.8;
	649	1	40.94	19.2	0	5.2	0	1	0	220	4	1.1	0.8;
	650	1	17.22	4.4	0	1.71	0	1	0	110	8	1.1	0.8;
	656	1	-0.15	-1.93	0	0	0	1	0	220	8	1.1	0.8;
	658	1	258.4	66.7	0	5.87	0	1	0	220	5	1.1	0.8;
	659	1	0	0	0	73.98	0	1	0	380	2	1.1	0.8;
...
];

%% generator data
%	bus	Pg	Qg	Qmax	Qmin	Vg	mBase	status	Pmax	Pmin	Pc1	Pc2	Qc1min	Qc1max	Qc2min	Qc2max	ramp_agc	ramp_10	ramp_30	ramp_q	apf
mpc.gen = [
	32	8	0.06	5.91	-4.56	1.00621	100	1	16.2	0	0	0	0	0	0	0	0	0	0	0	0;
	33	5.3	0.41	2.27	-1.08	1.03191	100	1	5.38	0	0	0	0	0	0	0	0	0	0	0	0;
	39	34.3	4.84	17.76	-7.14	1.00555	100	1	40	0	0	0	0	0	0	0	0	0	0	0	0;
	51	-144.5	0.55	5.48	-4.19	1.01198	100	1	100	-192.67	0	0	0	0	0	0	0	0	0	0	0;
	124	861.3	51.52	440.32	-172.59	1.07929	100	1	1000	333.33	0	0	0	0	0	0	0	0	0	0	0;
	150	67.29	-9.79	77.09	-22.54	1.06207	100	1	160	0	0	0	0	0	0	0	0	0	0	0	0;
	179	-179.2	-33.84	52.64	-51.72	1.04882	100	1	100	-238.93	0	0	0	0	0	0	0	0	0	0	0;
	194	268.6	43.34	130.19	-53.53	1.02958	100	1	300	100	0	0	0	0	0	0	0	0	0	0	0;
	201	5.2	0.39	2.27	-1.07	1.02468	100	1	5.37	0	0	0	0	0	0	0	0	0	0	0	0;
	221	-155.39	91.05	183.92	-65.3	0.99609	100	1	100	-207.18	0	0	0	0	0	0	0	0	0	0	0;
	299	975.9	127.2	721.25	-258.71	1.0462	100	1	1600	533.33	0	0	0	0	0	0	0	0	0	0	0;
	338	83.7	1.48	55.54	-19.16	1.04958	100	1	120	0	0	0	0	0	0	0	0	0	0	0	0;
	352	1250.4	268.17	926.35	-297.68	1.05469	100	1	2000	666.67	0	0	0	0	0	0	0	0	0	0	0;
	389	69	16.81	56.73	-17.84	1.02086	100	1	120	0	0	0	0	0	0	0	0	0	0	0	0;
	413	231	19.25	124.12	-49.84	1.05215	100	1	280	0	0	0	0	0	0	0	0	0	0	0	0;
	440	83.1	-4.05	55.73	-19.01	1.02942	100	1	120	0	0	0	0	0	0	0	0	0	0	0	0;
	442	-40.35	0.43	1.95	-0.93	1.01369	100	1	100	-53.8	0	0	0	0	0	0	0	0	0	0	0;
	453	260.1	54.54	257.23	-74.4	1.0211	100	1	540	0	0	0	0	0	0	0	0	0	0	0	0;
	489	-107.4	0.51	6.28	-4.82	1.0128	100	1	100	-143.2	0	0	0	0	0	0	0	0	0	0	0;
	516	539.4	188.57	261.79	-106.67	1.0748	100	1	600	200	0	0	0	0	0	0	0	0	0	0	0;
	564	-51.67	-0.63	18.47	-19.35	1.06969	100	1	100	-68.89	0	0	0	0	0	0	0	0	0	0	0;
	583	-270	5.38	17.88	-7.03	1.04339	100	1	100	-360	0	0	0	0	0	0	0	0	0	0	0;
	615	38.2	0.1	17.09	-7.79	1.06611	100	1	40	0	0	0	0	0	0	0	0	0	0	0	0;
	616	379.2	41.62	217.9	-81.16	1.04929	100	1	480	160	0	0	0	0	0	0	0	0	0	0	0;
	618	670.3	-35.39	351.18	-139.11	1.02823	100	1	800	266.67	0	0	0	0	0	0	0	0	0	0	0;
	628	152.4	41.51	78.79	-31.69	0.98494	100	1	180	0	0	0	0	0	0	0	0	0	0	0	0;
	639	-46.2	113.22	135.52	-38.9	1.04618	100	1	100	-61.6	0	0	0	0	0	0	0	0	0	0	0;
	642	63.33	-61.52	90.13	-93.03	1.03676	100	1	276.09	0	0	0	0	0	0	0	0	0	0	0	0;
	682	37.4	7.68	38.77	-11.06	1.06527	100	1	80	0	0	0	0	0	0	0	0	0	0	0	0;
	686	-21.65	-10.17	34.75	-34.26	1.01806	100	1	100	-28.86	0	0	0	0	0	0	0	0	0	0	0;
	698	274.8	1.65	129.94	-53.91	1.00154	100	1	300	100	0	0	0	0	0	0	0	0	0	0	0;
	709	16	-10.2	22.23	-20.83	1.07215	100	1	65.3	0	0	0	0	0	0	0	0	0	0	0	0;
	739	465.7	-64.04	212.97	-93.45	1.04058	100	1	500	166.67	0	0	0	0	0	0	0	0	0	0	0;
	749	198.88	4.46	105.69	-43.84	1.0548	100	1	240	0	0	0	0	0	0	0	0	0	0	0	0;
	751	65.9	-25.62	136.94	-47.24	1.02365	100	1	300	0	0	0	0	0	0	0	0	0	0	0	0;
	757	116.7	16.76	51.3	-23.41	1.01662	100	1	120	0	0	0	0	0	0	0	0	0	0	0	0;
	776	-111.4	5.74	18.16	-6.73	1.02904	100	1	100	-148.53	0	0	0	0	0	0	0	0	0	0	0;
	778	16.5	-0.5	12.37	-9.36	1.05104	100	1	33.58	0	0	0	0	0	0	0	0	0	0	0	0;
	780	50.8	17.97	37.43	-12.32	1.00614	100	1	80	0	0	0	0	0	0	0	0	0	0	0	0;
	795	58.4	7.49	36.75	-13.04	1.03964	100	1	80	0	0	0	0	0	0	0	0	0	0	0	0;
	803	-89.2	2.65	74.03	-25.54	1.04396	100	1	100	-118.93	0	0	0	0	0	0	0	0	0	0	0;
	807	1597.5	-194.05	864.47	-360.97	1.05704	100	1	2000	666.67	0	0	0	0	0	0	0	0	0	0	0;
	823	1274.2	283.53	926.68	-298.31	1.04435	100	1	2000	666.67	0	0	0	0	0	0	0	0	0	0	0;
	849	8.7	-0.02	6.45	-4.91	1.04139	100	1	17.57	0	0	0	0	0	0	0	0	0	0	0	0;
	851	59.56	49.36	96.64	-27.81	1.00626	100	1	200	0	0	0	0	0	0	0	0	0	0	0	0;
	858	855.6	161.18	440.67	-172.15	1.0353	100	1	1000	333.33	0	0	0	0	0	0	0	0	0	0	0;
	891	1702.8	646.56	1097.41	-373.91	1.0632	100	1	2400	800	0	0	0	0	0	0	0	0	0	0	0;
	913	1249.4	719.82	772.11	-269.94	1.03277	100	1	1700	566.67	0	0	0	0	0	0	0	0	0	0	0;
	916	230.2	-26.12	134.45	-49.76	1.02401	100	1	300	0	0	0	0	0	0	0	0	0	0	0	0;
	930	679.6	-118.4	406.66	-144.75	1.06376	100	1	900	300	0	0	0	0	0	0	0	0	0	0	0;
	972	1221.2	397.48	934.73	-291.52	1.069	100	1	2000	666.67	0	0	0	0	0	0	0	0	0	0	0;
	976	21.3	-5.88	36.02	-35.35	1.02985	100	1	107.83	0	0	0	0	0	0	0	0	0	0	0	0;
	1001	92.1	29.32	55.02	-19.81	1.07336	100	1	120	0	0	0	0	0	0	0	0	0	0	0	0;
	1002	171	15.98	89.55	-35.15	1.04065	100	1	200	0	0	0	0	0	0	0	0	0	0	0	0;
	1021	-179.3	3.66	58.34	-16.23	1.01913	100	1	100	-239.07	0	0	0	0	0	0	0	0	0	0	0;
	1030	164.94	7.29	71.66	-27.89	1.00979	100	1	400	100	0	0	0	0	0	0	0	0	0	0	0;
	1036	202.5	-1.53	137.39	-46.45	1.03866	100	1	300	100	0	0	0	0	0	0	0	0	0	0	0;
	1043	829.5	41.74	387.88	-163.4	1.02979	100	1	900	300	0	0	0	0	0	0	0	0	0	0	0;
	1083	91.8	10.7	54.91	-19.88	1.04615	100	1	120	0	0	0	0	0	0	0	0	0	0	0	0;
	1093	837	95.08	550.69	-185.15	1.02646	100	1	1200	400	0	0	0	0	0	0	0	0	0	0	0;
	1100	58.2	5.03	36.8	-13.01	1.04521	100	1	80	0	0	0	0	0	0	0	0	0	0	0	0;
	1102	-124.15	12.77	38.05	-11.59	1.0519	100	1	100	-165.54	0	0	0	0	0	0	0	0	0	0	0;
	1121	289.79	-18.85	158.2	-62.81	1.01967	100	1	360	0	0	0	0	0	0	0	0	0	0	0	0;
	1173	-124.7	0.31	1.85	-0.88	1.02612	100	1	100	-166.27	0	0	0	0	0	0	0	0	0	0	0;
	1174	26.8	5.72	18.61	-6.28	1.00487	100	1	40	0	0	0	0	0	0	0	0	0	0	0	0;
	1175	309.54	-1.37	108.35	-39.12	1.04002	100	1	700	200	0	0	0	0	0	0	0	0	0	0	0;
	1237	1504.8	347.49	906.61	-319.44	1.10504	100	1	2000	666.67	0	0	0	0	0	0	0	0	0	0	0;
	1241	46.13	-14.82	22.29	-20.98	1.02144	100	1	65.63	0	0	0	0	0	0	0	0	0	0	0	0;
	1251	837	89.88	550.69	-185.15	1.0265	100	1	1200	400	0	0	0	0	0	0	0	0	0	0	0;
	1271	-100.5	-12.52	32.54	-32.11	1.01557	100	1	100	-134	0	0	0	0	0	0	0	0	0	0	0;
	1295	-124.1	9.31	36.92	-12.88	1.03894	100	1	100	-165.47	0	0	0	0	0	0	0	0	0	0	0;
	1341	67.2	31.22	57.03	-17.62	1.0304	100	1	120	0	0	0	0	0	0	0	0	0	0	0	0;
	1354	-246.5	21.44	38.08	-11.73	1.04168	100	1	100	-328.67	0	0	0	0	0	0	0	0	0	0	0;
	1391	26.2	2.19	18.74	-6.17	1.02892	100	1	40	0	0	0	0	0	0	0	0	0	0	0	0;
	1399	-174.6	-2.47	11.64	-10.2	1.05272	100	1	100	-232.8	0	0	0	0	0	0	0	0	0	0	0;
	1409	628.19	-89.19	338.66	-151.76	1.02491	100	1	800	266.67	0	0	0	0	0	0	0	0	0	0	0;
	1422	-101	3.68	18.09	-6.79	1.04529	100	1	100	-134.67	0	0	0	0	0	0	0	0	0	0	0;
	1436	49.4	2.83	37.72	-12.09	1.04926	100	1	80	0	0	0	0	0	0	0	0	0	0	0	0;
	1458	1588	-288.24	895.23	-330.78	1.05352	100	1	2000	666.67	0	0	0	0	0	0	0	0	0	0	0;
	1475	783.9	-108.21	394.45	-157	1.0254	100	1	900	300	0	0	0	0	0	0	0	0	0	0	0;
	1478	62.6	7.21	36.4	-13.44	1.04616	100	1	80	0	0	0	0	0	0	0	0	0	0	0	0;
	1498	5.2	0.36	2.25	-1.06	1.07839	100	1	5.31	0	0	0	0	0	0	0	0	0	0	0	0;
	1570	121.4	-4.09	93.16	-29.49	1.07906	100	1	200	66.67	0	0	0	0	0	0	0	0	0	0	0;
	1604	50.6	14.56	37.66	-12.17	1.04428	100	1	80	0	0	0	0	0	0	0	0	0	0	0	0;
	1618	-136.6	-10.11	21.27	-20.07	1.07932	100	1	100	-182.13	0	0	0	0	0	0	0	0	0	0	0;
	1642	50.4	13.34	37.74	-12.11	1.03192	100	1	80	0	0	0	0	0	0	0	0	0	0	0	0;
	1680	1250.4	271.17	928.89	-296.1	1.04421	100	1	2000	666.67	0	0	0	0	0	0	0	0	0	0	0;
	1685	62.7	16.57	57.41	-17.22	1.00578	100	1	120	0	0	0	0	0	0	0	0	0	0	0	0;
	1697	-189	-12.59	31.94	-31.24	1.04149	100	1	100	-252	0	0	0	0	0	0	0	0	0	0	0;
	1708	860.8	132.37	439.37	-173.3	1.03784	100	1	1000	333.33	0	0	0	0	0	0	0	0	0	0	0;
	1721	28.1	1.63	18.52	-6.39	1.06154	100	1	40	0	0	0	0	0	0	0	0	0	0	0	0;
	1747	835.5	271.39	387.67	-163.73	1.05527	100	1	900	300	0	0	0	0	0	0	0	0	0	0	0;
	1754	40	5.45	16.99	-7.92	1.0408	100	1	41.06	0	0	0	0	0	0	0	0	0	0	0	0;
	1788	430.2	252.54	272.25	-94.92	1.01873	100	1	600	200	0	0	0	0	0	0	0	0	0	0	0;
	1793	-90.3	-0.67	34.64	-15.2	1.02341	100	1	100	-120.4	0	0	0	0	0	0	0	0	0	0	0;
	1794	1250.4	248.88	926.35	-297.68	1.05273	100	1	2000	666.67	0	0	0	0	0	0	0	0	0	0	0;
	1808	-0.6	-6.42	111.23	-38.16	1.04782	100	1	100	-0.8	0	0	0	0	0	0	0	0	0	0	0;
	1850	2.89	-1.45	11.52	-10.09	1.02016	100	1	32.97	0	0	0	0	0	0	0	0	0	0	0	0;
	1851	15.6	-0.75	11.76	-8.89	1.0492	100	1	31.92	0	0	0	0	0	0	0	0	0	0	0	0;
	1852	-241.8	15.7	58.16	-16.52	1.05613	100	1	100	-322.4	0	0	0	0	0	0	0	0	0	0	0;
	1888	573.68	43.66	396.02	-155.83	1.0431	100	1	912.78	312.78	0	0	0	0	0	0	0	0	0	0	0;
	1890	1526	129.25	686.73	-294.62	1.05085	100	1	1600	533.33	0	0	0	0	0	0	0	0	0	0	0;
	1898	246	-24.92	133.11	-51.25	1.07771	100	1	300	0	0	0	0	0	0	0	0	0	0	0	0;
	1909	-31.18	3.61	38.67	-11.1	1.02179	100	1	100	-41.57	0	0	0	0	0	0	0	0	0	0	0;
	1914	115.5	-35.25	160.36	-150.95	1.03834	100	1	472.16	39.35	0	0	0	0	0	0	0	0	0	0	0;
	1947	-17.02	0.43	2.05	-0.97	1.05651	100	1	100	-22.7	0	0	0	0	0	0	0	0	0	0	0;
	1959	31	1.06	18.14	-6.75	1.06695	100	1	40	0	0	0	0	0	0	0	0	0	0	0	0;
	1999	141.6	5.8	80.51	-30.07	1.08021	100	1	180	0	0	0	0	0	0	0	0	0	0	0	0;
	2030	576	167.94	257	-110.85	1.07268	100	1	600	200	0	0	0	0	0	0	0	0	0	0	0;
	2035	855.6	161.48	441.85	-171.27	1.03455	100	1	1000	333.33	0	0	0	0	0	0	0	0	0	0	0;
	2050	836.2	-45.26	962.2	-263.65	1.00859	100	1	2000	666.67	0	0	0	0	0	0	0	0	0	0	0;
	2085	176	36.2	88.39	-36.19	1.03273	100	1	200	0	0	0	0	0	0	0	0	0	0	0	0;
	2091	33.9	1.74	17.88	-7.04	1.02654	100	1	40	0	0	0	0	0	0	0	0	0	0	0	0;
	2096	1063.5	-194.12	522.74	-212.37	1.05071	100	1	1200	400	0	0	0	0	0	0	0	0	0	0	0;
	2107	1269.4	611.1	661.9	-257.62	1.04823	100	1	1500	500	0	0	0	0	0	0	0	0	0	0	0;
	2150	498.4	98.97	266.17	-101.5	1.06483	100	1	600	200	0	0	0	0	0	0	0	0	0	0	0;
	2177	-121.3	15.21	58.35	-16.26	1.07056	100	1	100	-161.73	0	0	0	0	0	0	0	0	0	0	0;
	2193	7.9	1.86	7.47	-2.56	1.01418	100	1	16.12	0	0	0	0	0	0	0	0	0	0	0	0;
	2197	-53.29	2.68	19.51	-14.74	1.0362	100	1	100	-71.05	0	0	0	0	0	0	0	0	0	0	0;
	2206	204.3	24.03	137.29	-46.58	1.02014	100	1	300	100	0	0	0	0	0	0	0	0	0	0	0;
	2225	-83.5	0.41	2.27	-1.04	1.02967	100	1	100	-111.33	0	0	0	0	0	0	0	0	0	0	0;
	2236	-38.45	0.44	2.23	-1.07	1.02316	100	1	100	-51.26	0	0	0	0	0	0	0	0	0	0	0;
	2267	362	147.75	228.16	-78.83	1.00086	100	1	500	166.67	0	0	0	0	0	0	0	0	0	0	0;
	2276	38.9	-22.76	41.67	-36.5	1.05514	100	1	119.3	0	0	0	0	0	0	0	0	0	0	0	0;
	2291	110.5	12.61	95.69	-28.93	1.06869	100	1	200	0	0	0	0	0	0	0	0	0	0	0	0;
	2335	431.2	242.01	273.49	-94.1	1.04098	100	1	600	200	0	0	0	0	0	0	0	0	0	0	0;
	2359	78.2	8.56	34.35	-15.5	1.025	100	1	80	0	0	0	0	0	0	0	0	0	0	0	0;
	2412	67.3	-92.42	134.54	-136.29	1.01685	100	1	409.09	0	0	0	0	0	0	0	0	0	0	0	0;
	2421	-320.4	10.06	37.39	-12.45	1.0477	100	1	100	-427.2	0	0	0	0	0	0	0	0	0	0	0;
	2425	-100.5	14.28	54.3	-20.49	1.04303	100	1	100	-134	0	0	0	0	0	0	0	0	0	0	0;
	2426	-43.2	-33.04	105.34	-99.02	1.04083	100	1	100	-57.6	0	0	0	0	0	0	0	0	0	0	0;
	2446	1367	280.85	921.62	-304.73	1.05357	100	1	2000	666.67	0	0	0	0	0	0	0	0	0	0	0;
	2460	37.79	20.28	38.01	-11.74	0.98327	100	1	80	0	0	0	0	0	0	0	0	0	0	0	0;
	2468	46.8	4.68	38.02	-11.81	1.04947	100	1	80	0	0	0	0	0	0	0	0	0	0	0	0;
	2481	31.8	11.07	39.12	-10.71	1.04175	100	1	80	0	0	0	0	0	0	0	0	0	0	0	0;
	2489	286.5	-17.67	162.4	-61.79	1.04921	100	1	360	0	0	0	0	0	0	0	0	0	0	0	0;
	2517	3.85	-14.82	78.13	-77.07	1.01724	100	1	234.52	0	0	0	0	0	0	0	0	0	0	0	0;
	2550	54.3	3.25	58.23	-16.49	1.05094	100	1	120	0	0	0	0	0	0	0	0	0	0	0	0;
	2572	411.2	80.01	276.19	-91.63	1.0449	100	1	600	200	0	0	0	0	0	0	0	0	0	0	0;
	2600	76.48	15.74	76.08	-23.59	1.04192	100	1	160	0	0	0	0	0	0	0	0	0	0	0	0;
	2627	1367	289.47	921.52	-304.79	1.05298	100	1	2000	666.67	0	0	0	0	0	0	0	0	0	0	0;
	2642	1897	-254.15	848.76	-377.67	1.05492	100	1	2000	666.67	0	0	0	0	0	0	0	0	0	0	0;
	2653	41.92	10.03	51.94	-22.8	1.03641	100	1	120	0	0	0	0	0	0	0	0	0	0	0	0;
	2658	308.31	-21.53	124.68	-59.39	1.0266	100	1	700	200	0	0	0	0	0	0	0	0	0	0	0;
	2660	144.9	12.3	79.69	-30.77	1.0139	100	1	180	0	0	0	0	0	0	0	0	0	0	0	0;
	2686	-72.9	-46.07	69.01	-69.9	1.02044	100	1	100	-97.2	0	0	0	0	0	0	0	0	0	0	0;
	2719	77.6	-16.82	70.15	-58.1	1.0395	100	1	196.72	0	0	0	0	0	0	0	0	0	0	0	0;
	2764	575.4	-114.34	416.7	-134.5	1.05096	100	1	900	300	0	0	0	0	0	0	0	0	0	0	0;
	2786	1221.2	379.25	934.81	-291.47	1.06929	100	1	2000	666.67	0	0	0	0	0	0	0	0	0	0	0;
	2797	-95.1	-2.82	88.33	-36.33	1.04466	100	1	100	-126.8	0	0	0	0	0	0	0	0	0	0	0;
	2799	66.8	-1.37	77.91	-21.66	1.05546	100	1	160	0	0	0	0	0	0	0	0	0	0	0	0;
	2800	1048.2	-98.17	525.34	-209.84	1.03021	100	1	1200	400	0	0	0	0	0	0	0	0	0	0	0;
	2816	1250.4	280.3	926.26	-297.74	1.05454	100	1	2000	666.67	0	0	0	0	0	0	0	0	0	0	0;
	2817	71.8	4.24	34.8	-14.94	0.99171	100	1	80	0	0	0	0	0	0	0	0	0	0	0	0;
	2841	80.7	-3.32	55.98	-18.76	1.07999	100	1	120	0	0	0	0	0	0	0	0	0	0	0	0;
	2842	31.6	6.06	18.19	-6.74	1.04412	100	1	40	0	0	0	0	0	0	0	0	0	0	0	0;
	2853	126	10.21	72.02	-27.47	1.0006	100	1	160	0	0	0	0	0	0	0	0	0	0	0	0;
	2872	4.5	0.35	3.31	-2.54	1.06061	100	1	9.05	0	0	0	0	0	0	0	0	0	0	0	0;
	2878	8.95	-12.23	72.95	-68.71	1.05418	100	1	214.86	0	0	0	0	0	0	0	0	0	0	0	0;
	2886	60.9	10.13	57.69	-17.02	1.05288	100	1	120	0	0	0	0	0	0	0	0	0	0	0	0;
	2896	-223.4	0.31	1.52	-0.73	1.01163	100	1	100	-297.87	0	0	0	0	0	0	0	0	0	0	0;
	2902	20.9	1.52	19.19	-5.72	1.06102	100	1	40	0	0	0	0	0	0	0	0	0	0	0	0;
	2930	53.2	2.38	37.24	-12.54	1.04927	100	1	80	0	0	0	0	0	0	0	0	0	0	0	0;
	2934	3.4	0.17	2.51	-1.91	1.05297	100	1	6.83	0	0	0	0	0	0	0	0	0	0	0	0;
	2946	-222.1	0.29	1.83	-0.87	1.02002	100	1	100	-296.13	0	0	0	0	0	0	0	0	0	0	0;
	2985	46.6	-70.17	184.46	-132.67	1.05077	100	1	493.35	0	0	0	0	0	0	0	0	0	0	0	0;
	3018	162.5	-4.96	89.61	-34.82	1.04337	100	1	200	0	0	0	0	0	0	0	0	0	0	0	0;
	3028	855.7	158.53	441.85	-171.27	1.03432	100	1	1000	333.33	0	0	0	0	0	0	0	0	0	0	0;
	3054	210.4	123.54	167.72	-77.11	0.99985	100	1	400	133.33	0	0	0	0	0	0	0	0	0	0	0;
	3113	-20.3	-10.92	22.39	-20.99	1.07264	100	1	100	-27.07	0	0	0	0	0	0	0	0	0	0	0;
	3114	38.6	3.91	17.33	-7.61	1.0681	100	1	40	0	0	0	0	0	0	0	0	0	0	0	0;
	3133	85.54	-1.1	113.97	-35.56	1.06176	100	1	240	0	0	0	0	0	0	0	0	0	0	0	0;
	3134	-136.3	-10.75	70.25	-29.33	1.02503	100	1	100	-181.73	0	0	0	0	0	0	0	0	0	0	0;
	3150	-31.34	0.57	6.66	-5.1	1.01709	100	1	100	-41.79	0	0	0	0	0	0	0	0	0	0	0;
	3157	9	-0.09	6.78	-5.13	1.02366	100	1	18.41	0	0	0	0	0	0	0	0	0	0	0	0;
	3163	33.9	-29.77	67.92	-69.02	1.00638	100	1	206.86	0	0	0	0	0	0	0	0	0	0	0	0;
	3183	98.7	-3.82	53.7	-20.98	1.05699	100	1	120	0	0	0	0	0	0	0	0	0	0	0	0;
	3205	416.7	108.62	243.61	-88.46	1.03763	100	1	540	0	0	0	0	0	0	0	0	0	0	0	0;
	3218	-107.4	9.03	36.79	-13	1.03215	100	1	100	-143.2	0	0	0	0	0	0	0	0	0	0	0;
	3233	13	-7.58	178.47	-79.11	1.01242	100	1	420	0	0	0	0	0	0	0	0	0	0	0	0;
	3240	-42.3	-24.84	62.23	-51.37	1.05157	100	1	100	-56.4	0	0	0	0	0	0	0	0	0	0	0;
	3291	326.4	-17.26	229	-77.02	1.02725	100	1	500	166.67	0	0	0	0	0	0	0	0	0	0	0;
	3306	861.3	134.8	439.2	-173.43	1.06927	100	1	1000	333.33	0	0	0	0	0	0	0	0	0	0	0;
	3324	-26.48	16.92	38.13	-11.64	1.01652	100	1	100	-35.3	0	0	0	0	0	0	0	0	0	0	0;
	3334	-45.5	3.24	34.41	-15.34	1.03247	100	1	100	-60.67	0	0	0	0	0	0	0	0	0	0	0;
	3335	-600	2045.7	99998.999	-99998.999	1.08873	100	1	630	-630	0	0	0	0	0	0	0	0	0	0	0;
	3346	56.8	12.86	37.1	-12.76	1.01475	100	1	80	0	0	0	0	0	0	0	0	0	0	0	0;
	3353	19.07	6.07	38.2	-11.61	1.0478	100	1	80	0	0	0	0	0	0	0	0	0	0	0	0;
	3364	44.5	-22.17	47.19	-41.44	1.0553	100	1	135.27	0	0	0	0	0	0	0	0	0	0	0	0;
	3390	2.4	21.5	54.59	-20.19	1.04168	100	1	120	0	0	0	0	0	0	0	0	0	0	0	0;
	3416	171.3	38.2	76.43	-34.12	0.99708	100	1	180	0	0	0	0	0	0	0	0	0	0	0	0;
	3422	53.7	-2.9	58.19	-16.5	1.06587	100	1	120	0	0	0	0	0	0	0	0	0	0	0	0;
	3436	521	207.76	550.97	-184.89	1.05628	100	1	1200	400	0	0	0	0	0	0	0	0	0	0	0;
	3492	-370.8	6.56	53.75	-21.08	1.04519	100	1	100	-494.4	0	0	0	0	0	0	0	0	0	0	0;
	3513	829.8	43.52	387.88	-163.4	1.02979	100	1	900	300	0	0	0	0	0	0	0	0	0	0	0;
	3565	15.88	2.99	38.83	-10.97	1.07912	100	1	80	0	0	0	0	0	0	0	0	0	0	0	0;
	3580	539	187.63	261.7	-107.36	1.07523	100	1	600	0	0	0	0	0	0	0	0	0	0	0	0;
	3582	-321.8	-36.63	52.83	-52.04	1.04513	100	1	100	-429.07	0	0	0	0	0	0	0	0	0	0	0;
	3584	-88.4	-1.9	19.8	-15.12	1.01965	100	1	100	-117.87	0	0	0	0	0	0	0	0	0	0	0;
	3585	50.8	17.99	37.43	-12.32	1.0061	100	1	80	0	0	0	0	0	0	0	0	0	0	0	0;
...
];

%% branch data
%	fbus	tbus	r	x	b	rateA	rateB	rateC	ratio	angle	status	angmin	angmax
mpc.branch = [
	3	8189	0.01013	0.04238	0	9999	9999	9999	0	0	1	-360	360;
	3	8676	0.001841	0.0088	0	9999	9999	9999	0	0	1	-360	360;
	4	1813	0.00361	0.015211	0	9999	9999	9999	0	0	1	-360	360;
	9018	4	0.002169	0.00911	0	9999	9999	9999	0	0	1	-360	360;
	6630	10	0.000599	0.00186	0	9999	9999	9999	0	0	1	-360	360;
	8867	15	0.00013	0.00132	0	9999	9999	9999	0	0	1	-360	360;
	9216	15	0.000159	0.001461	0	9999	9999	9999	0	0	1	-360	360;
	3670	21	0.000289	0.00138	0	9999	9999	9999	0	0	1	-360	360;
	21	6163	0.00013	0.00055	0	9999	9999	9999	0	0	1	-360	360;
	7047	21	0.00032	0.001409	0	9999	9999	9999	0	0	1	-360	360;
	7047	21	0.0003	0.000961	0	9999	9999	9999	0	0	1	-360	360;
	2083	22	0.00087	0.006591	0	9999	9999	9999	0	0	1	-360	360;
	26	2479	0.00203	0.02416	0	9999	9999	9999	0	0	1	-360	360;
	26	4231	0.00103	0.00987	0	9999	9999	9999	0	0	1	-360	360;
	26	4598	0.001	0.01459	0	9999	9999	9999	0	0	1	-360	360;
	5016	26	0.00045	0.00608	0	9999	9999	9999	0	0	1	-360	360;
	26	5144	0.00041	0.00398	0	9999	9999	9999	0	0	1	-360	360;
	26	5144	0.00038	0.00483	0	9999	9999	9999	0	0	1	-360	360;
	26	6624	0.00256	0.03401	0	9999	9999	9999	0	0	1	-360	360;
	1198	29	0.0023	0.01581	0	9999	9999	9999	0	0	1	-360	360;
	9203	29	0.00105	0.00877	0	9999	9999	9999	0	0	1	-360	360;
	249	32	9.1e-05	0.000961	0	9999	9999	9999	0	0	1	-360	360;
	1391	32	0.02818	0.116099	0	9999	9999	9999	0	0	1	-360	360;
	32	2143	0.00324	0.01912	0	9999	9999	9999	0	0	1	-360	360;
	7819	32	0.027	0.131289	0	9999	9999	9999	0	0	1	-360	360;
	9043	32	0.02626	0.15576	0	9999	9999	9999	0	0	1	-360	360;
	33	3334	0.000211	0.001659	0	9999	9999	9999	0	0	1	-360	360;
	76	38	1e-07	0.000469	0	9999	9999	9999	0	0	1	-360	360;
	2523	38	0.00094	0.012531	0	9999	9999	9999	0	0	1	-360	360;
	4248	38	0.00106	0.01595	0	9999	9999	9999	0	0	1	-360	360;
	38	5742	0.000219	0.00088	0	9999	9999	9999	0	0	1	-360	360;
	38	6118	0.000289	0.001039	0	9999	9999	9999	0	0	1	-360	360;
	39	1174	0.002009	0.01464	0	9999	9999	9999	0	0	1	-360	360;
	8197	39	0.00076	0.005622	0	9999	9999	9999	0	0	1	-360	360;
	42	2096	0.00163	0.01287	0	9999	9999	9999	0	0	1	-360	360;
	42	5919	0.00055	0.00621	0	9999	9999	9999	0	0	1	-360	360;
	44	1545	0.002659	0.02	0	9999	9999	9999	0	0	1	-360	360;
	44	3541	0.003031	0.02343	0	9999	9999	9999	0	0	1	-360	360;
	6313	44	0.0035	0.022211	0	9999	9999	9999	0	0	1	-360	360;
	8628	44	0.003591	0.02137	0	9999	9999	9999	0	0	1	-360	360;
	51	2517	0.007729	0.025401	0	9999	9999	9999	0	0	1	-360	360;
	51	5670	0.00295	0.0162	0	9999	9999	9999	0	0	1	-360	360;
	51	6174	0.001581	0.0087	0	9999	9999	9999	0	0	1	-360	360;
	52	199	0.00772	0.033818	0	9999	9999	9999	0	0	1	-360	360;
	52	928	0.003071	0.004551	0	9999	9999	9999	0	0	1	-360	360;
	52	928	0.003009	0.004649	0	9999	9999	9999	0	0	1	-360	360;
	52	2494	9.8e-05	0.000222	0	9999	9999	9999	0	0	1	-360	360;
	52	7195	0.008009	0.04	0	9999	9999	9999	0	0	1	-360	360;
	8613	52	0.002671	0.018929	0	9999	9999	9999	0	0	1	-360	360;
	52	9007	0.000822	0.00656	0	9999	9999	9999	0	0	1	-360	360;
	53	4031	0.003711	0.024219	0	9999	9999	9999	0	0	1	-360	360;
	6474	53	0.00205	0.014229	0	9999	9999	9999	0	0	1	-360	360;
	58	221	0.0003	0.00385	0	9999	9999	9999	0	0	1	-360	360;
	59	2360	0.00239	0.017281	0	9999	9999	9999	0	0	1	-360	360;
	59	5764	0.00339	0.019669	0	9999	9999	9999	0	0	1	-360	360;
	5829	69	0.00044	0.004489	0	9999	9999	9999	0	0	1	-360	360;
	69	7852	0.002542	0.01472	0	9999	9999	9999	0	0	1	-360	360;
	8814	69	0.0056	0.052889	0	9999	9999	9999	0	0	1	-360	360;
	7295	71	0.003951	0.02048	0	9999	9999	9999	0	0	1	-360	360;
	71	7297	0.003858	0.020871	0	9999	9999	9999	0	0	1	-360	360;
	7884	71	0.004529	0.023551	0	9999	9999	9999	0	0	1	-360	360;
	7884	71	0.004449	0.02404	0	9999	9999	9999	0	0	1	-360	360;
	71	8141	9.8e-05	0.00028	0	9999	9999	9999	0	0	1	-360	360;
	4317	72	0.003711	0.01725	0	9999	9999	9999	0	0	1	-360	360;
	72	6093	0.00293	0.01293	0	9999	9999	9999	0	0	1	-360	360;
	75	2126	0.00039	0.003099	0	9999	9999	9999	0	0	1	-360	360;
	75	6869	0.000729	0.0048	0	9999	9999	9999	0	0	1	-360	360;
	1362	76	0.000919	0.012789	0	9999	9999	9999	0	0	1	-360	360;
	76	2769	0.00032	0.001469	0	9999	9999	9999	0	0	1	-360	360;
	4320	76	0.00119	0.014081	0	9999	9999	9999	0	0	1	-360	360;
	76	5742	0.000219	0.00095	0	9999	9999	9999	0	0	1	-360	360;
	77	6660	3.9e-05	0.00037	0	9999	9999	9999	0	0	1	-360	360;
	9064	89	0.00051	0.00454	0	9999	9999	9999	0	0	1	-360	360;
	90	1860	0.00368	0.02074	0	9999	9999	9999	0	0	1	-360	360;
	90	1860	0.00313	0.02444	0	9999	9999	9999	0	0	1	-360	360;
	91	722	8e-05	0.000729	0	9999	9999	9999	0	0	1	-360	360;
	5994	96	0.0048	0.021771	0	9999	9999	9999	0	0	1	-360	360;
	7473	96	0.00364	0.01713	0	9999	9999	9999	0	0	1	-360	360;
	113	3906	0.00053	0.00503	0	9999	9999	9999	0	0	1	-360	360;
	115	225	0.00068	0.00387	0	9999	9999	9999	0	0	1	-360	360;
	3391	115	0.001229	0.009669	0	9999	9999	9999	0	0	1	-360	360;
	3391	115	0.001341	0.008349	0	9999	9999	9999	0	0	1	-360	360;
	7895	115	0.00424	0.033031	0	9999	9999	9999	0	0	1	-360	360;
	118	4598	0.00056	0.00719	0	9999	9999	9999	0	0	1	-360	360;
	118	8903	8e-05	0.00091	0	9999	9999	9999	0	0	1	-360	360;
	3246	124	6e-05	0.00111	0	9999	9999	9999	0	0	1	-360	360;
	128	1554	0.000219	0.00164	0	9999	9999	9999	0	0	1	-360	360;
	130	536	0.00127	0.01399	0	9999	9999	9999	0	0	1	-360	360;
	130	3080	0.00134	0.01235	0	9999	9999	9999	0	0	1	-360	360;
	130	4393	0.00142	0.01374	0	9999	9999	9999	0	0	1	-360	360;
	132	2962	0.00064	0.00715	0	9999	9999	9999	0	0	1	-360	360;
	132	4393	0.00089	0.00712	0	9999	9999	9999	0	0	1	-360	360;
	133	3047	0.002089	0.00372	0	9999	9999	9999	0	0	1	-360	360;
	133	9120	0.002049	0.0038	0	9999	9999	9999	0	0	1	-360	360;
	1703	138	0.00157	0.01326	0	9999	9999	9999	0	0	1	-360	360;
	138	2031	0.00142	0.01472	0	9999	9999	9999	0	0	1	-360	360;
	139	8211	0.00098	0.01192	0	9999	9999	9999	0	0	1	-360	360;
	8393	139	1e-07	0.00045	0	9999	9999	9999	0	0	1	-360	360;
	139	8773	0.00091	0.01207	0	9999	9999	9999	0	0	1	-360	360;
	2824	140	1e-07	0.000531	0	9999	9999	9999	0	0	1	-360	360;
	3538	140	0.000539	0.005461	0	9999	9999	9999	0	0	1	-360	360;
	140	3891	0.00125	0.016099	0	9999	9999	9999	0	0	1	-360	360;
	1255	143	9.8e-05	0.00028	0	9999	9999	9999	0	0	1	-360	360;
	8473	145	0.00037	0.00118	0	9999	9999	9999	0	0	1	-360	360;
	148	7069	0.000289	0.001211	0	9999	9999	9999	0	0	1	-360	360;
	150	3558	0.00201	0.00444	0	9999	9999	9999	0	0	1	-360	360;
	150	5099	0.01905	0.055729	0	9999	9999	9999	0	0	1	-360	360;
	1248	163	0.0023	0.01289	0	9999	9999	9999	0	0	1	-360	360;
	1768	163	0.00214	0.012599	0	9999	9999	9999	0	0	1	-360	360;
	163	2430	0.00518	0.020021	0	9999	9999	9999	0	0	1	-360	360;
	163	3498	0.00375	0.019729	0	9999	9999	9999	0	0	1	-360	360;
	4974	163	0.004841	0.03149	0	9999	9999	9999	0	0	1	-360	360;
	164	2180	1e-07	0.001169	0	9999	9999	9999	0	0	1	-360	360;
	164	2708	0.001582	0.002831	0	9999	9999	9999	0	0	1	-360	360;
	164	7596	0.000942	0.003342	0	9999	9999	9999	0	0	1	-360	360;
	164	8490	0.000631	0.01472	0	9999	9999	9999	0	0	1	-360	360;
	171	2341	0.001841	0.01324	0	9999	9999	9999	0	0	1	-360	360;
	4615	171	0.00212	0.01207	0	9999	9999	9999	0	0	1	-360	360;
	6053	171	0.002669	0.01663	0	9999	9999	9999	0	0	1	-360	360;
	6053	171	0.00262	0.016979	0	9999	9999	9999	0	0	1	-360	360;
	1021	172	0.003349	0.0145	0	9999	9999	9999	0	0	1	-360	360;
	172	2946	0.003159	0.025331	0	9999	9999	9999	0	0	1	-360	360;
	5213	174	0.008531	0.067151	0	9999	9999	9999	0	0	1	-360	360;
	174	6430	0.006961	0.05561	0	9999	9999	9999	0	0	1	-360	360;
	8316	174	0.0012	0.00818	0	9999	9999	9999	0	0	1	-360	360;
	322	177	0.00305	0.01762	0	9999	9999	9999	0	0	1	-360	360;
	1974	177	0.00119	0.01063	0	9999	9999	9999	0	0	1	-360	360;
	177	2460	0.003581	0.017289	0	9999	9999	9999	0	0	1	-360	360;
	177	4744	0.002711	0.01526	0	9999	9999	9999	0	0	1	-360	360;
	177	5361	0.00037	0.005409	0	9999	9999	9999	0	0	1	-360	360;
	5825	177	0.01099	0.052909	0	9999	9999	9999	0	0	1	-360	360;
	177	6311	0.00039	0.006081	0	9999	9999	9999	0	0	1	-360	360;
	177	7236	0.00244	0.013789	0	9999	9999	9999	0	0	1	-360	360;
	8459	177	0.00162	0.00889	0	9999	9999	9999	0	0	1	-360	360;
	1697	179	0.00154	0.01634	0	9999	9999	9999	0	0	1	-360	360;
	1697	179	0.00157	0.01604	0	9999	9999	9999	0	0	1	-360	360;
	1728	179	0.00068	0.0089	0	9999	9999	9999	0	0	1	-360	360;
	179	2096	0.00169	0.02383	0	9999	9999	9999	0	0	1	-360	360;
	2416	179	0.00194	0.02225	0	9999	9999	9999	0	0	1	-360	360;
	5042	179	0.00107	0.00871	0	9999	9999	9999	0	0	1	-360	360;
	184	1526	0.00044	0.00069	0	9999	9999	9999	0	0	1	-360	360;
	3758	188	0.00614	0.02831	0	9999	9999	9999	0	0	1	-360	360;
	194	7018	0.00032	0.014102	0	9999	9999	9999	0	0	1	-360	360;
	195	2985	0.00226	0.0138	0	9999	9999	9999	0	0	1	-360	360;
	4525	195	0.010159	0.065849	0	9999	9999	9999	0	0	1	-360	360;
	9180	195	0.00238	0.013219	0	9999	9999	9999	0	0	1	-360	360;
	1105	196	0.00024	0.000409	0	9999	9999	9999	0	0	1	-360	360;
	196	1973	0.000281	0.00119	0	9999	9999	9999	0	0	1	-360	360;
	198	1554	0.00295	0.01539	0	9999	9999	9999	0	0	1	-360	360;
	198	7994	0.002159	0.01163	0	9999	9999	9999	0	0	1	-360	360;
	199	7195	0.000351	0.004662	0	9999	9999	9999	0	0	1	-360	360;
	5991	201	0.003341	0.022841	0	9999	9999	9999	0	0	1	-360	360;
	201	8582	0.00236	0.011219	0	9999	9999	9999	0	0	1	-360	360;
	676	205	0.00352	0.020578	0	9999	9999	9999	0	0	1	-360	360;
	8706	205	0.003809	0.0248	0	9999	9999	9999	0	0	1	-360	360;
	207	4747	0.002151	0.013401	0	9999	9999	9999	0	0	1	-360	360;
	207	7791	0.000789	0.005669	0	9999	9999	9999	0	0	1	-360	360;
	211	2804	0.004314	0.024537	0	9999	9999	9999	0	0	1	-360	360;
	211	2832	0.017653	0.070289	0	9999	9999	9999	0	0	1	-360	360;
	211	6526	0.010248	0.047	0	9999	9999	9999	0	0	1	-360	360;
	211	6526	0.010058	0.048	0	9999	9999	9999	0	0	1	-360	360;
	2801	216	0.00113	0.00632	0	9999	9999	9999	0	0	1	-360	360;
	8683	216	0.00094	0.005	0	9999	9999	9999	0	0	1	-360	360;
	217	1179	0.00101	0.00462	0	9999	9999	9999	0	0	1	-360	360;
	217	2575	0.00088	0.00389	0	9999	9999	9999	0	0	1	-360	360;
	217	6785	0.00405	0.018271	0	9999	9999	9999	0	0	1	-360	360;
	217	6785	0.00387	0.02063	0	9999	9999	9999	0	0	1	-360	360;
	7014	217	0.00087	0.00387	0	9999	9999	9999	0	0	1	-360	360;
	217	7274	0.005081	0.039	0	9999	9999	9999	0	0	1	-360	360;
	9128	217	0.000591	0.002831	0	9999	9999	9999	0	0	1	-360	360;
	218	2088	0.003669	0.02988	0	9999	9999	9999	0	0	1	-360	360;
	3760	225	0.00125	0.00745	0	9999	9999	9999	0	0	1	-360	360;
	7647	225	0.0002	0.001211	0	9999	9999	9999	0	0	1	-360	360;
	1968	228	0.841911	4.76844	0	9999	9999	9999	0	0	1	-360	360;
	228	3493	0.025991	0.10048	0	9999	9999	9999	0	0	1	-360	360;
	228	4586	0.004391	0.021689	0	9999	9999	9999	0	0	1	-360	360;
	228	5776	0.699778	3.23231	0	9999	9999	9999	0	0	1	-360	360;
	228	6826	0.106151	0.993333	0	9999	9999	9999	0	0	1	-360	360;
	442	230	0.00557	0.03376	0	9999	9999	9999	0	0	1	-360	360;
	230	1802	0.00431	0.02226	0	9999	9999	9999	0	0	1	-360	360;
	3629	230	0.007099	0.04044	0	9999	9999	9999	0	0	1	-360	360;
	6383	231	1e-07	0.000413	0	9999	9999	9999	0	0	1	-360	360;
	236	3427	0.00068	0.00438	0	9999	9999	9999	0	0	1	-360	360;
	236	8236	0.001419	0.008539	0	9999	9999	9999	0	0	1	-360	360;
	243	558	1e-07	0.000222	0	9999	9999	9999	0	0	1	-360	360;
	2720	243	1e-07	0.000222	0	9999	9999	9999	0	0	1	-360	360;
	8389	243	0.001129	0.012329	0	9999	9999	9999	0	0	1	-360	360;
	243	8621	1e-07	0.000222	0	9999	9999	9999	0	0	1	-360	360;
	244	2619	0.001769	0.00824	0	9999	9999	9999	0	0	1	-360	360;
	6356	244	0.001369	0.006649	0	9999	9999	9999	0	0	1	-360	360;
	8164	244	0.000369	0.00152	0	9999	9999	9999	0	0	1	-360	360;
	1741	249	0.00387	0.028599	0	9999	9999	9999	0	0	1	-360	360;
	249	4467	0.00414	0.035331	0	9999	9999	9999	0	0	1	-360	360;
	249	5290	0.009781	0.065581	0	9999	9999	9999	0	0	1	-360	360;
	249	5290	0.00949	0.06625	0	9999	9999	9999	0	0	1	-360	360;
	1021	257	0.01207	0.077901	0	9999	9999	9999	0	0	1	-360	360;
	6769	257	0.003281	0.02124	0	9999	9999	9999	0	0	1	-360	360;
	1774	261	0.0001	0.0011	0	9999	9999	9999	0	0	1	-360	360;
	2248	264	0.000281	0.00213	0	9999	9999	9999	0	0	1	-360	360;
	264	7064	0.000331	0.001919	0	9999	9999	9999	0	0	1	-360	360;
...
];

%%-----  OPF Data  -----%%
%% generator cost data
%	1	startup	shutdown	n	x1	y1	...	xn	yn
%	2	startup	shutdown	n	c(n-1)	...	c0
mpc.gencost = [
	2	0	0	3	0	2	0;
	2	0	0	3	0	3	0;
	2	0	0	3	0	4	0;
	2	0	0	3	0	5	0;
	2	0	0	3	0	6	0;
	2	0	0	3	0	7	0;
	2	0	0	3	0	8	0;
	2	0	0	3	0	9	0;
	2	0	0	3	0	10	0;
	2	0	0	3	0	1	0;
	2	0	0	3	0	2	0;
	2	0	0	3	0	3	0;
	2	0	0	3	0	4	0;
	2	0	0	3	0	5	0;
	2	0	0	3	0	6	0;
	2	0	0	3	0	7	0;
	2	0	0	3	0	8	0;
	2	0	0	3	0	9	0;
	2	0	0	3	0	10	0;
	2	0	0	3	0	1	0;
	2	0	0	3	0	2	0;
	2	0	0	3	0	3	0;
	2	0	0	3	0	4	0;
	2	0	0	3	0	5	0;
	2	0	0	3	0	6	0;
	2	0	0	3	0	7	0;
	2	0	0	3	0	8	0;
	2	0	0	3	0	9	0;
	2	0	0	3	0	10	0;
	2	0	0	3	0	1	0;
	2	0	0	3	0	2	0;
	2	0	0	3	0	3	0;
	2	0	0	3	0	4	0;
	2	0	0	3	0	5	0;
	2	0	0	3	0	6	0;
	2	0	0	3	0	7	0;
	2	0	0	3	0	8	0;
	2	0	0	3	0	9	0;
	2	0	0	3	0	10	0;
	2	0	0	3	0	1	0;
	2	0	0	3	0	2	0;
	2	0	0	3	0	3	0;
	2	0	0	3	0	4	0;
	2	0	0	3	0	5	0;
	2	0	0	3	0	6	0;
	2	0	0	3	0	7	0;
	2	0	0	3	0	8	0;
	2	0	0	3	0	9	0;
	2	0	0	3	0	10	0;
	2	0	0	3	0	1	0;
	2	0	0	3	0	2	0;
	2	0	0	3	0	3	0;
	2	0	0	3	0	4	0;
	2	0	0	3	0	5	0;
	2	0	0	3	0	6	0;
	2	0	0	3	0	7	0;
	2	0	0	3	0	8	0;
	2	0	0	3	0	9	0;
	2	0	0	3	0	10	0;
	2	0	0	3	0	1	0;
	2	0	0	3	0	2	0;
	2	0	0	3	0	3	0;
	2	0	0	3	0	4	0;
	2	0	0	3	0	5	0;
	2	0	0	3	0	6	0;
	2	0	0	3	0	7	0;
	2	0	0	3	0	8	0;
	2	0	0	3	0	9	0;
	2	0	0	3	0	10	0;
	2	0	0	3	0	1	0;
	2	0	0	3	0	2	0;
	2	0	0	3	0	3	0;
	2	0	0	3	0	4	0;
	2	0	0	3	0	5	0;
	2	0	0	3	0	6	0;
	2	0	0	3	0	7	0;
	2	0	0	3	0	8	0;
	2	0	0	3	0	9	0;
	2	0	0	3	0	10	0;
	2	0	0	3	0	1	0;
	2	0	0	3	0	2	0;
	2	0	0	3	0	3	0;
	2	0	0	3	0	4	0;
	2	0	0	3	0	5	0;
	2	0	0	3	0	6	0;
	2	0	0	3	0	7	0;
	2	0	0	3	0	8	0;
	2	0	0	3	0	9	0;
	2	0	0	3	0	10	0;
	2	0	0	3	0	1	0;
	2	0	0	3	0	2	0;
	2	0	0	3	0	3	0;
	2	0	0	3	0	4	0;
	2	0	0	3	0	5	0;
	2	0	0	3	0	6	0;
	2	0	0	3	0	7	0;
	2	0	0	3	0	8	0;
	2	0	0	3	0	9	0;
	2	0	0	3	0	10	0;
	2	0	0	3	0	1	0;
	2	0	0	3	0	2	0;
	2	0	0	3	0	3	0;
	2	0	0	3	0	4	0;
	2	0	0	3	0	5	0;
	2	0	0	3	0	6	0;
	2	0	0	3	0	7	0;
	2	0	0	3	0	8	0;
	2	0	0	3	0	9	0;
	2	0	0	3	0	10	0;
	2	0	0	3	0	1	0;
	2	0	0	3	0	2	0;
	2	0	0	3	0	3	0;
	2	0	0	3	0	4	0;
	2	0	0	3	0	5	0;
	2	0	0	3	0	6	0;
	2	0	0	3	0	7	0;
	2	0	0	3	0	8	0;
	2	0	0	3	0	9	0;
	2	0	0	3	0	10	0;
	2	0	0	3	0	1	0;
	2	0	0	3	0	2	0;
	2	0	0	3	0	3	0;
	2	0	0	3	0	4	0;
	2	0	0	3	0	5	0;
	2	0	0	3	0	6	0;
	2	0	0	3	0	7	0;
	2	0	0	3	0	8	0;
	2	0	0	3	0	9	0;
	2	0	0	3	0	10	0;
	2	0	0	3	0	1	0;
	2	0	0	3	0	2	0;
	2	0	0	3	0	3	0;
	2	0	0	3	0	4	0;
	2	0	0	3	0	5	0;
	2	0	0	3	0	6	0;
	2	0	0	3	0	7	0;
	2	0	0	3	0	8	0;
	2	0	0	3	0	9	0;
	2	0	0	3	0	10	0;
	2	0	0	3	0	1	0;
	2	0	0	3	0	2	0;
	2	0	0	3	0	3	0;
	2	0	0	3	0	4	0;
	2	0	0	3	0	5	0;
	2	0	0	3	0	6	0;
	2	0	0	3	0	7	0;
	2	0	0	3	0	8	0;
	2	0	0	3	0	9	0;
	2	0	0	3	0	10	0;
	2	0	0	3	0	1	0;
	2	0	0	3	0	2	0;
	2	0	0	3	0	3	0;
	2	0	0	3	0	4	0;
	2	0	0	3	0	5	0;
	2	0	0	3	0	6	0;
	2	0	0	3	0	7	0;
	2	0	0	3	0	8	0;
	2	0	0	3	0	9	0;
	2	0	0	3	0	10	0;
	2	0	0	3	0	1	0;
	2	0	0	3	0	2	0;
	2	0	0	3	0	3	0;
	2	0	0	3	0	4	0;
	2	0	0	3	0	5	0;
	2	0	0	3	0	6	0;
	2	0	0	3	0	7	0;
	2	0	0	3	0	8	0;
	2	0	0	3	0	9	0;
	2	0	0	3	0	10	0;
	2	0	0	3	0	1	0;
	2	0	0	3	0	2	0;
	2	0	0	3	0	3	0;
	2	0	0	3	0	4	0;
	2	0	0	3	0	5	0;
	2	0	0	3	0	6	0;
	2	0	0	3	0	7	0;
	2	0	0	3	0	8	0;
	2	0	0	3	0	9	0;
	2	0	0	3	0	10	0;
	2	0	0	3	0	1	0;
	2	0	0	3	0	2	0;
	2	0	0	3	0	3	0;
	2	0	0	3	0	4	0;
	2	0	0	3	0	5	0;
	2	0	0	3	0	6	0;
	2	0	0	3	0	7	0;
	2	0	0	3	0	8	0;
	2	0	0	3	0	9	0;
	2	0	0	3	0	10	0;
	2	0	0	3	0	1	0;
	2	0	0	3	0	2	0;
	2	0	0	3	0	3	0;
	2	0	0	3	0	4	0;
	2	0	0	3	0	5	0;
	2	0	0	3	0	6	0;
	2	0	0	3	0	7	0;
	2	0	0	3	0	8	0;
	2	0	0	3	0	9	0;
	2	0	0	3	0	10	0;
	2	0	0	3	0	1	0;
...
];

%% bus names
mpc.bus_name = {
	'3           ';
	'4           ';
	'10          ';
	'15          ';
	'21          ';
	'22          ';
	'26          ';
	'29          ';
	'32          ';
	'33          ';
	'38          ';
	'39          ';
	'42          ';
	'44          ';
	'51          ';
	'52          ';
	'53          ';
	'58          ';
	'59          ';
	'69          ';
	'71          ';
	'72          ';
	'75          ';
	'76          ';
	'77          ';
	'89          ';
	'90          ';
	'91          ';
	'96          ';
	'113         ';
	'115         ';
	'118         ';
	'124         ';
	'128         ';
	'130         ';
	'132         ';
	'133         ';
	'138         ';
	'139         ';
	'140         ';
	'143         ';
	'145         ';
	'148         ';
	'150         ';
	'163         ';
	'164         ';
	'171         ';
	'172         ';
	'174         ';
	'177         ';
	'179         ';
	'184         ';
	'188         ';
	'194         ';
	'195         ';
	'196         ';
	'198         ';
	'199         ';
	'201         ';
	'205         ';
	'207         ';
	'211         ';
	'216         ';
	'217         ';
	'218         ';
	'221         ';
	'225         ';
	'228         ';
	'230         ';
	'231         ';
	'236         ';
	'243         ';
	'244         ';
	'249         ';
	'257         ';
	'261         ';
	'264         ';
	'266         ';
	'267         ';
	'268         ';
	'271         ';
	'275         ';
	'280         ';
	'281         ';
	'283         ';
	'284         ';
	'292         ';
	'297         ';
	'299         ';
	'304         ';
	'305         ';
	'306         ';
	'311         ';
	'312         ';
	'314         ';
	'315         ';
	'317         ';
	'322         ';
	'326         ';
	'333         ';
	'338         ';
	'344         ';
	'346         ';
	'349         ';
	'350         ';
	'351         ';
	'352         ';
	'360         ';
	'367         ';
	'369         ';
	'370         ';
	'377         ';
	'380         ';
	'385         ';
	'387         ';
	'389         ';
	'392         ';
	'395         ';
	'401         ';
	'408         ';
	'410         ';
	'413         ';
	'415         ';
	'416         ';
	'420         ';
	'425         ';
	'426         ';
	'427         ';
	'429         ';
	'432         ';
	'440         ';
	'441         ';
	'442         ';
	'444         ';
	'445         ';
	'449         ';
	'453         ';
	'455         ';
	'472         ';
	'473         ';
	'477         ';
	'481         ';
	'483         ';
	'486         ';
	'489         ';
	'490         ';
	'496         ';
	'500         ';
	'502         ';
	'506         ';
	'509         ';
	'513         ';
	'516         ';
	'519         ';
	'520         ';
	'523         ';
	'527         ';
	'536         ';
	'539         ';
	'544         ';
	'548         ';
	'549         ';
	'550         ';
	'552         ';
	'554         ';
	'556         ';
	'558         ';
	'559         ';
	'561         ';
	'564         ';
	'575         ';
	'577         ';
	'579         ';
	'583         ';
	'585         ';
	'593         ';
	'594         ';
	'595         ';
	'597         ';
	'601         ';
	'602         ';
	'604         ';
	'608         ';
	'609         ';
	'610         ';
	'615         ';
	'616         ';
	'618         ';
	'619         ';
	'621         ';
	'628         ';
	'639         ';
	'641         ';
	'642         ';
	'643         ';
	'649         ';
	'650         ';
	'656         ';
	'658         ';
	'659         ';
...
};
